9
"Ga3 Al2 As4"
Ga    0.718772    0.718772    2.875100
Ga    3.593862    3.593862    2.875100
Al    3.593862    0.718772    5.750200
Al    0.718772    3.593862    5.750200
As    2.156317    2.156317    4.312650
As    5.031407    5.031407    4.312650
As   -0.718772   -0.718772    4.312650
As    5.031407   -0.718772    4.312650
As   -0.718772    5.031407    4.312650
